test/TEST190523/v_h15.csv
Bus, BasekV, Node1, Magnitude1, Angle1, pu1, Node2, Magnitude2, Angle2, pu2, Node3, Magnitude3, Angle3, pu3
"SOURCEBUS", 69, 1,    41809.2,   -0.1,    1.0495, 2,    41820.7, -120.2,    1.0498, 3,    41784.7,  119.8,    1.0489
"BUSMVMAI1", 12.8, 1,    7749.69,  -30.4,    1.0487, 2,    7756.82, -150.4,    1.0496, 3,       7741,   89.3,    1.0475
"BUSMVMAI136", 12.505, 1,     7749.7,  -30.4,    1.0734, 2,     7756.8, -150.4,    1.0743, 3,    7740.92,   89.3,    1.0721
"BUSMVMAI3", 12.505, 1,    7754.48,  -30.9,     1.074, 2,     7733.6, -150.4,    1.0711, 3,    7673.48,   88.6,    1.0628
"BUSMVMAI2", 12.505, 1,     7754.5,  -30.9,     1.074, 2,    7733.54, -150.4,    1.0711, 3,     7673.3,   88.6,    1.0628
"BUSMVMAI4", 12.505, 1,    7754.64,  -30.9,     1.074, 2,    7732.88, -150.4,     1.071, 3,    7671.41,   88.6,    1.0625
"BUSMVMAI46", 12.505, 1,    7754.48,  -30.9,     1.074, 2,    7733.63, -150.4,    1.0711, 3,    7673.56,   88.6,    1.0628
"BUSMVMAI5", 12.505, 1,    7754.52,  -30.9,     1.074, 2,    7732.03, -150.4,    1.0709, 3,     7669.4,   88.6,    1.0622
"BUSMVMAI862", 12.505, 1,    7754.63,  -30.9,     1.074, 0, 0, 0, 0, 0, 0, 0, 0
"BUSMVMAI6", 12.505, 1,    7754.49,  -30.9,     1.074, 2,    7731.87, -150.4,    1.0709, 3,    7669.03,   88.6,    1.0622
"BUSMVMAI859", 12.505, 3,    7669.37,   88.6,    1.0622, 0, 0, 0, 0, 0, 0, 0, 0
"BUSMVMAI860", 12.505, 3,     7669.4,   88.6,    1.0622, 0, 0, 0, 0, 0, 0, 0, 0
"BUSMVMAI7", 12.505, 1,    7754.11,  -31.0,     1.074, 2,    7731.22, -150.4,    1.0708, 3,    7667.62,   88.6,     1.062
"BUSMVMAI8", 12.505, 1,    7754.93,  -31.0,    1.0741, 2,    7729.91, -150.4,    1.0706, 3,    7666.19,   88.6,    1.0618
"BUSMVMAI9", 12.505, 1,    7754.11,  -31.0,     1.074, 2,    7731.22, -150.4,    1.0708, 3,    7667.62,   88.6,     1.062
"BUSMVMAI10", 12.505, 1,    7753.56,  -31.0,    1.0739, 2,    7731.29, -150.4,    1.0708, 3,    7667.24,   88.6,    1.0619
"BUSMVMAI56", 12.505, 1,    7753.84,  -31.0,    1.0739, 2,    7731.25, -150.4,    1.0708, 3,    7667.43,   88.6,     1.062
"BUSMVMAI861", 12.505, 3,    7669.31,   88.6,    1.0622, 0, 0, 0, 0, 0, 0, 0, 0
"BUSMVMAI12", 12.505, 1,    7755.59,  -31.0,    1.0742, 2,    7728.84, -150.4,    1.0705, 3,    7665.01,   88.5,    1.0616
"BUSMVMAI51", 12.505, 1,    7754.93,  -31.0,    1.0741, 2,    7729.91, -150.4,    1.0706, 3,    7666.19,   88.6,    1.0618
"BUSMVMAI2171", 12.505, 1,    7754.93,  -31.0,    1.0741, 0, 0, 0, 0, 0, 0, 0, 0
"BUSMVMAI863", 12.505, 3,    7669.27,   88.6,    1.0622, 0, 0, 0, 0, 0, 0, 0, 0
"BUSMVMAI2165", 12.505, 3,    7667.62,   88.6,     1.062, 0, 0, 0, 0, 0, 0, 0, 0
"BUSMVMAI694", 12.505, 1,    7754.11,  -31.0,     1.074, 2,    7731.22, -150.4,    1.0708, 3,    7667.62,   88.6,     1.062
"BUSMVMAI122", 12.505, 1,    7753.54,  -31.0,    1.0739, 2,    7731.29, -150.4,    1.0708, 3,    7667.22,   88.6,    1.0619
"BUSMVMAI11", 12.505, 1,    7755.59,  -31.0,    1.0742, 2,    7728.83, -150.4,    1.0705, 3,    7665.02,   88.5,    1.0616
"BUSMVMAI13", 12.505, 1,    7755.58,  -31.0,    1.0742, 2,    7728.82, -150.4,    1.0705, 3,    7665.03,   88.5,    1.0616
"BUSMVMAI18", 12.505, 1,    7755.85,  -31.0,    1.0742, 2,    7728.45, -150.4,    1.0704, 3,    7664.56,   88.5,    1.0616
"BUSMVMAI14", 12.505, 1,    7755.57,  -31.0,    1.0742, 2,    7728.78, -150.4,    1.0705, 3,    7665.06,   88.5,    1.0616
"BUSMVMAI15", 12.505, 1,    7755.55,  -31.0,    1.0742, 2,    7728.74, -150.4,    1.0705, 3,     7665.1,   88.5,    1.0616
"BUSMVMAI16", 12.505, 1,    7755.54,  -31.0,    1.0742, 2,    7728.75, -150.4,    1.0705, 3,    7665.11,   88.5,    1.0616
"BUSMVMAI2166", 12.505, 2,    7728.73, -150.4,    1.0705, 0, 0, 0, 0, 0, 0, 0, 0
"BUSMVMAI2172", 12.505, 1,    7754.62,  -30.9,     1.074, 0, 0, 0, 0, 0, 0, 0, 0
"BUSMVMAI864", 12.505, 3,    7669.23,   88.6,    1.0622, 0, 0, 0, 0, 0, 0, 0, 0
"BUSMVMAI865", 12.505, 3,    7669.17,   88.6,    1.0622, 0, 0, 0, 0, 0, 0, 0, 0
"BUSMVMAI17", 12.505, 1,    7755.54,  -31.0,    1.0742, 2,    7728.75, -150.4,    1.0705, 3,    7665.11,   88.5,    1.0616
"BUSMVMAI695", 12.505, 1,    7755.54,  -31.0,    1.0742, 2,    7728.75, -150.4,    1.0705, 3,    7665.11,   88.5,    1.0616
"BUSMVMAI866", 12.505, 3,    7669.17,   88.6,    1.0622, 0, 0, 0, 0, 0, 0, 0, 0
"BUSMVMAI2176", 12.505, 3,    7669.17,   88.6,    1.0622, 0, 0, 0, 0, 0, 0, 0, 0
"BUSMVMAI2177", 12.505, 3,    7669.17,   88.6,    1.0622, 0, 0, 0, 0, 0, 0, 0, 0
"BUSMVMAI2178", 12.505, 3,    7669.13,   88.6,    1.0622, 0, 0, 0, 0, 0, 0, 0, 0
"BUSMVMAI19", 12.505, 1,    7756.33,  -31.0,    1.0743, 2,    7727.75, -150.4,    1.0703, 3,    7663.76,   88.5,    1.0615
"BUSMVMAI20", 12.505, 1,    7757.01,  -31.0,    1.0744, 2,    7726.75, -150.4,    1.0702, 3,    7662.62,   88.5,    1.0613
"BUSMVMAI53", 12.505, 1,    7756.33,  -31.0,    1.0743, 2,    7727.75, -150.4,    1.0703, 3,    7663.76,   88.5,    1.0615
"BUSMVMAI21", 12.505, 1,    7757.72,  -31.0,    1.0745, 2,     7725.7, -150.4,      1.07, 3,    7661.43,   88.5,    1.0611
"BUSMVMAI22", 12.505, 1,    7758.56,  -31.0,    1.0746, 2,    7724.47, -150.4,    1.0699, 3,    7660.05,   88.5,    1.0609
"BUSMVMAI23", 12.505, 1,    7757.72,  -31.0,    1.0745, 2,     7725.7, -150.4,      1.07, 3,    7661.43,   88.5,    1.0611
"BUSMVMAI25", 12.505, 1,    7759.44,  -31.0,    1.0747, 2,    7723.17, -150.4,    1.0697, 3,    7658.61,   88.4,    1.0607
"BUSMVMAI52", 12.505, 1,    7758.56,  -31.0,    1.0746, 2,    7724.47, -150.4,    1.0699, 3,    7660.05,   88.5,    1.0609
"BUSMVMAI54", 12.505, 1,    7758.56,  -31.0,    1.0746, 2,    7724.47, -150.4,    1.0699, 3,    7660.05,   88.5,    1.0609
"BUSMVMAI55", 12.505, 1,    7758.56,  -31.0,    1.0746, 2,    7724.47, -150.4,    1.0699, 3,    7660.05,   88.5,    1.0609
"BUSMVMAI696", 12.505, 1,    7757.72,  -31.0,    1.0745, 2,     7725.7, -150.4,      1.07, 3,    7661.43,   88.5,    1.0611
"BUSMVMAI24", 12.505, 1,    7759.53,  -31.0,    1.0747, 2,    7723.05, -150.4,    1.0697, 3,    7658.47,   88.4,    1.0607
"BUSMVMAI26", 12.505, 1,    7760.41,  -31.0,    1.0748, 2,    7721.75, -150.4,    1.0695, 3,    7657.04,   88.4,    1.0605
"BUSMVMAI49", 12.505, 1,    7759.44,  -31.0,    1.0747, 2,    7723.17, -150.4,    1.0697, 3,    7658.61,   88.4,    1.0607
"BUSMVMAI50", 12.505, 1,    7759.44,  -31.0,    1.0747, 2,    7723.17, -150.4,    1.0697, 3,    7658.61,   88.4,    1.0607
"BUSMVMAI27", 12.505, 1,     7760.4,  -31.0,    1.0748, 2,    7721.76, -150.4,    1.0695, 3,    7657.03,   88.4,    1.0605
"BUSMVMAI28", 12.505, 1,    7761.09,  -31.0,    1.0749, 2,    7720.75, -150.3,    1.0694, 3,    7655.95,   88.4,    1.0604
"BUSMVMAI29", 12.505, 1,    7760.38,  -31.0,    1.0748, 2,    7721.77, -150.4,    1.0695, 3,    7657.02,   88.4,    1.0605
"BUSMVMAI31", 12.505, 1,    7761.89,  -31.0,    1.0751, 2,     7719.6, -150.3,    1.0692, 3,    7654.69,   88.4,    1.0602
"BUSMVMAI30", 12.505, 1,    7760.36,  -31.0,    1.0748, 2,    7721.78, -150.4,    1.0695, 3,    7657.01,   88.4,    1.0605
"BUSMVMAI34", 12.505, 1,    7760.35,  -31.0,    1.0748, 2,    7721.79, -150.4,    1.0695, 3,       7657,   88.4,    1.0605
"BUSMVMAI867", 12.505, 1,    7761.83,  -31.0,     1.075, 0, 0, 0, 0, 0, 0, 0, 0
"BUSMVMAI43", 12.505, 1,    7761.91,  -31.0,    1.0751, 2,    7719.57, -150.3,    1.0692, 3,    7654.67,   88.4,    1.0602
"BUSMVMAI871", 12.505, 2,     7719.6, -150.3,    1.0692, 0, 0, 0, 0, 0, 0, 0, 0
"BUSMVMAI33", 12.505, 1,    7762.14,  -31.0,    1.0751, 2,    7719.23, -150.3,    1.0691, 3,    7654.31,   88.4,    1.0602
"BUSMVMAI32", 12.505, 1,    7762.84,  -31.0,    1.0752, 2,    7718.22, -150.3,     1.069, 3,    7653.27,   88.4,      1.06
"BUSMVMAI37", 12.505, 1,    7763.77,  -31.0,    1.0753, 2,    7716.85, -150.3,    1.0688, 3,    7651.86,   88.3,    1.0598
"BUSMVMAI44", 12.505, 1,    7761.92,  -31.0,    1.0751, 2,    7719.54, -150.3,    1.0692, 3,    7654.64,   88.4,    1.0602
"BUSMVMAI35", 12.505, 1,    7760.35,  -31.0,    1.0748, 2,    7721.79, -150.4,    1.0695, 3,       7657,   88.4,    1.0605
"BUSMVMAI36", 12.505, 1,    7760.35,  -31.0,    1.0748, 2,     7721.8, -150.4,    1.0695, 3,    7656.99,   88.4,    1.0605
"BUSMVMAI869", 12.505, 1,    7761.83,  -31.0,     1.075, 0, 0, 0, 0, 0, 0, 0, 0
"BUSMVMAI38", 12.505, 1,    7764.52,  -31.0,    1.0754, 2,    7715.75, -150.3,    1.0687, 3,    7650.76,   88.3,    1.0597
"BUSMVMAI2181", 12.505, 1,    7763.76,  -31.0,    1.0753, 0, 0, 0, 0, 0, 0, 0, 0
"BUSMVMAI868", 12.505, 1,    7761.74,  -31.0,     1.075, 0, 0, 0, 0, 0, 0, 0, 0
"BUSMVMAI870", 12.505, 1,    7761.64,  -31.0,     1.075, 0, 0, 0, 0, 0, 0, 0, 0
"BUSMVMAI39", 12.505, 1,    7764.54,  -31.0,    1.0754, 2,    7715.74, -150.3,    1.0687, 3,    7650.72,   88.3,    1.0597
"BUSMVMAI40", 12.505, 1,    7765.22,  -31.0,    1.0755, 2,    7714.69, -150.3,    1.0685, 3,     7649.7,   88.3,    1.0595
"BUSMVMAI697", 12.505, 1,    7764.56,  -31.0,    1.0754, 2,    7715.75, -150.3,    1.0687, 3,    7650.59,   88.3,    1.0596
"BUSMVMAI41", 12.505, 1,    7766.05,  -31.0,    1.0756, 2,    7713.47, -150.3,    1.0683, 3,    7648.46,   88.3,    1.0593
"BUSMVMAI42", 12.505, 1,    7766.08,  -31.0,    1.0756, 2,    7713.44, -150.3,    1.0683, 3,    7648.42,   88.3,    1.0593
"BUSMVMAI48", 12.505, 1,    7766.69,  -31.0,    1.0757, 2,    7712.47, -150.3,    1.0682, 3,    7647.47,   88.3,    1.0592
"BUSMVMAI303", 12.505, 1,    7766.37,  -31.0,    1.0757, 2,    7712.97, -150.3,    1.0683, 3,    7647.96,   88.3,    1.0593
"BUSMVMAI45", 12.505, 1,    7766.09,  -31.0,    1.0756, 2,    7713.44, -150.3,    1.0683, 3,    7648.39,   88.3,    1.0593
"BUSMVMAI701", 12.505, 1,     7766.1,  -31.0,    1.0756, 2,    7713.44, -150.3,    1.0683, 3,    7648.36,   88.3,    1.0593
"BUSMVMAI47", 12.505, 1,    7754.41,  -30.9,     1.074, 2,    7733.92, -150.4,    1.0712, 3,    7674.39,   88.6,    1.0629
"BUSMVMAI179", 12.505, 1,    7754.44,  -30.9,     1.074, 2,    7733.78, -150.4,    1.0712, 3,    7673.98,   88.6,    1.0629
"BUSMVMAI160", 12.505, 1,    7754.26,  -30.9,     1.074, 2,    7734.61, -150.4,    1.0713, 3,    7676.39,   88.7,    1.0632
"BUSMVMAI1103", 12.505, 1,    7766.62,  -31.0,    1.0757, 0, 0, 0, 0, 0, 0, 0, 0
"BUSMVMAI259", 12.505, 1,    7767.06,  -31.0,    1.0758, 2,    7711.93, -150.3,    1.0681, 3,    7647.01,   88.3,    1.0591
"BUSMVMAI304", 12.505, 1,    7766.69,  -31.0,    1.0757, 2,    7712.47, -150.3,    1.0682, 3,    7647.47,   88.3,    1.0592
"BUSMVMAI702", 12.505, 1,    7759.44,  -31.0,    1.0747, 2,    7723.17, -150.4,    1.0697, 3,    7658.61,   88.4,    1.0607
"BUSMVMAI58", 12.505, 1,    7753.19,  -31.0,    1.0738, 2,    7731.33, -150.4,    1.0708, 3,    7666.98,   88.6,    1.0619
"BUSMVMAI57", 12.505, 1,     7751.9,  -31.0,    1.0737, 2,     7731.5, -150.4,    1.0708, 3,    7666.08,   88.6,    1.0618
"BUSMVMAI60", 12.505, 1,    7751.36,  -31.0,    1.0736, 2,    7731.56, -150.4,    1.0709, 3,    7665.71,   88.6,    1.0617
"BUSMVMAI703", 12.505, 1,     7751.9,  -31.0,    1.0737, 2,     7731.5, -150.4,    1.0708, 3,    7666.08,   88.6,    1.0618
"BUSMVMAI123", 12.505, 1,    7753.51,  -31.0,    1.0739, 2,    7731.29, -150.4,    1.0708, 3,     7667.2,   88.6,    1.0619
"BUSMVMAI59", 12.505, 1,    7750.59,  -31.0,    1.0735, 2,    7731.68, -150.4,    1.0709, 3,    7665.32,   88.6,    1.0617
"BUSMVMAI61", 12.505, 1,    7749.32,  -31.0,    1.0733, 2,    7731.88, -150.4,    1.0709, 3,    7664.67,   88.6,    1.0616
"BUSMVMAI63", 12.505, 1,    7751.39,  -31.0,    1.0736, 2,    7731.54, -150.4,    1.0709, 3,    7665.65,   88.6,    1.0617
"BUSMVMAI874", 12.505, 3,    7665.71,   88.6,    1.0617, 0, 0, 0, 0, 0, 0, 0, 0
"BUSMVMAI62", 12.505, 1,    7748.11,  -31.0,    1.0731, 2,       7732, -150.4,    1.0709, 3,    7664.03,   88.6,    1.0615
"BUSMVMAI64", 12.505, 1,    7746.79,  -31.0,     1.073, 2,    7732.17, -150.4,    1.0709, 3,    7663.57,   88.6,    1.0614
"BUSMVMAI942", 12.505, 3,    7664.02,   88.6,    1.0615, 0, 0, 0, 0, 0, 0, 0, 0
"BUSMVMAI873", 12.505, 3,    7664.02,   88.6,    1.0615, 0, 0, 0, 0, 0, 0, 0, 0
"BUSMVMAI872", 12.505, 3,    7663.74,   88.6,    1.0615, 0, 0, 0, 0, 0, 0, 0, 0
"BUSMVMAI880", 12.505, 3,    7663.74,   88.6,    1.0615, 0, 0, 0, 0, 0, 0, 0, 0
"BUSMVMAI945", 12.505, 3,    7665.64,   88.6,    1.0617, 0, 0, 0, 0, 0, 0, 0, 0
"BUSMVMAI65", 12.505, 1,    7745.41,  -31.0,    1.0728, 2,     7732.3, -150.4,     1.071, 3,    7663.06,   88.6,    1.0614
"BUSMVMAI66", 12.505, 1,    7744.02,  -31.0,    1.0726, 2,    7732.44, -150.4,     1.071, 3,    7662.55,   88.6,    1.0613
"BUSMVMAI67", 12.505, 1,    7742.52,  -31.0,    1.0724, 2,    7732.58, -150.4,     1.071, 3,       7662,   88.6,    1.0612
"BUSMVMAI878", 12.505, 1,    7742.46,  -31.0,    1.0724, 0, 0, 0, 0, 0, 0, 0, 0
"BUSMVMAI68", 12.505, 1,     7741.4,  -31.0,    1.0722, 2,    7732.67, -150.4,     1.071, 3,    7661.59,   88.6,    1.0612
"BUSMVMAI706", 12.505, 1,    7742.52,  -31.0,    1.0724, 2,    7732.58, -150.4,     1.071, 3,       7662,   88.6,    1.0612
"BUSMVMAI876", 12.505, 3,    7665.63,   88.6,    1.0617, 0, 0, 0, 0, 0, 0, 0, 0
"BUSMVMAI875", 12.505, 3,    7665.42,   88.6,    1.0617, 0, 0, 0, 0, 0, 0, 0, 0
"BUSMVMAI877", 12.505, 3,    7665.35,   88.6,    1.0617, 0, 0, 0, 0, 0, 0, 0, 0
"BUSMVMAI883", 12.505, 3,    7665.16,   88.6,    1.0617, 0, 0, 0, 0, 0, 0, 0, 0
"BUSMVMAI884", 12.505, 3,    7665.33,   88.6,    1.0617, 0, 0, 0, 0, 0, 0, 0, 0
"BUSMVMAI886", 12.505, 3,    7665.34,   88.6,    1.0617, 0, 0, 0, 0, 0, 0, 0, 0
"BUSMVMAI885", 12.505, 1,    7742.37,  -31.0,    1.0724, 0, 0, 0, 0, 0, 0, 0, 0
"BUSMVMAI879", 12.505, 3,    7663.35,   88.6,    1.0614, 0, 0, 0, 0, 0, 0, 0, 0
"BUSMVMAI881", 12.505, 3,    7663.34,   88.6,    1.0614, 0, 0, 0, 0, 0, 0, 0, 0
"BUSMVMAI888", 12.505, 3,    7663.29,   88.6,    1.0614, 0, 0, 0, 0, 0, 0, 0, 0
"BUSMVMAI882", 12.505, 3,    7663.32,   88.6,    1.0614, 0, 0, 0, 0, 0, 0, 0, 0
"BUSMVMAI944", 12.505, 3,    7663.32,   88.6,    1.0614, 0, 0, 0, 0, 0, 0, 0, 0
"BUSMVMAI889", 12.505, 3,       7665,   88.6,    1.0616, 0, 0, 0, 0, 0, 0, 0, 0
"BUSMVMAI2183", 12.505, 3,    7665.33,   88.6,    1.0617, 0, 0, 0, 0, 0, 0, 0, 0
"BUSMVMAI2184", 12.505, 3,    7665.33,   88.6,    1.0617, 0, 0, 0, 0, 0, 0, 0, 0
"BUSMVMAI71", 12.505, 1,    7740.33,  -31.0,    1.0721, 2,    7732.73, -150.4,     1.071, 3,     7661.2,   88.6,    1.0611
"BUSMVMAI2182", 12.505, 1,    7742.36,  -31.0,    1.0723, 0, 0, 0, 0, 0, 0, 0, 0
"BUSMVMAI2185", 12.505, 1,    7742.38,  -31.0,    1.0724, 0, 0, 0, 0, 0, 0, 0, 0
"BUSMVMAI2186", 12.505, 1,     7742.3,  -31.0,    1.0723, 0, 0, 0, 0, 0, 0, 0, 0
"BUSMVMAI887", 12.505, 3,    7665.34,   88.6,    1.0617, 0, 0, 0, 0, 0, 0, 0, 0
"BUSMVMAI892", 12.505, 3,    7665.34,   88.6,    1.0617, 0, 0, 0, 0, 0, 0, 0, 0
"BUSMVMAI897", 12.505, 3,    7663.22,   88.6,    1.0614, 0, 0, 0, 0, 0, 0, 0, 0
"BUSMVMAI890", 12.505, 3,    7664.86,   88.6,    1.0616, 0, 0, 0, 0, 0, 0, 0, 0
"BUSMVMAI891", 12.505, 3,    7664.76,   88.6,    1.0616, 0, 0, 0, 0, 0, 0, 0, 0
"BUSMVMAI896", 12.505, 3,    7664.73,   88.6,    1.0616, 0, 0, 0, 0, 0, 0, 0, 0
"BUSMVMAI893", 12.505, 3,    7665.34,   88.6,    1.0617, 0, 0, 0, 0, 0, 0, 0, 0
"BUSMVMAI894", 12.505, 3,    7665.34,   88.6,    1.0617, 0, 0, 0, 0, 0, 0, 0, 0
"BUSMVMAI895", 12.505, 3,    7665.33,   88.6,    1.0617, 0, 0, 0, 0, 0, 0, 0, 0
"BUSMVMAI898", 12.505, 3,    7665.33,   88.6,    1.0617, 0, 0, 0, 0, 0, 0, 0, 0
"BUSMVMAI70", 12.505, 1,    7742.53,  -31.0,    1.0724, 2,    7732.59, -150.4,     1.071, 3,    7661.96,   88.6,    1.0612
"BUSMVMAI69", 12.505, 1,    7742.53,  -31.0,    1.0724, 2,    7732.59, -150.4,     1.071, 3,    7661.95,   88.6,    1.0612
"BUSMVMAI708", 12.505, 1,    7742.53,  -31.0,    1.0724, 2,    7732.59, -150.4,     1.071, 3,    7661.96,   88.6,    1.0612
"BUSMVMAI72", 12.505, 1,    7738.93,  -31.0,    1.0719, 2,     7732.8, -150.4,     1.071, 3,    7660.69,   88.6,     1.061
"BUSMVMAI73", 12.505, 1,    7737.57,  -31.0,    1.0717, 2,     7732.9, -150.4,     1.071, 3,     7660.3,   88.6,     1.061
"BUSMVMAI134", 12.505, 1,    7738.93,  -31.0,    1.0719, 2,     7732.8, -150.4,     1.071, 3,    7660.69,   88.6,     1.061
"BUSMVMAI900", 12.505, 3,    7663.15,   88.6,    1.0614, 0, 0, 0, 0, 0, 0, 0, 0
"BUSMVMAI904", 12.505, 3,    7665.33,   88.6,    1.0617, 0, 0, 0, 0, 0, 0, 0, 0
"BUSMVMAI75", 12.505, 1,    7736.91,  -31.1,    1.0716, 2,    7732.98, -150.4,    1.0711, 3,    7660.07,   88.6,     1.061
"BUSMVMAI718", 12.505, 1,    7737.57,  -31.0,    1.0717, 2,     7732.9, -150.4,     1.071, 3,     7660.3,   88.6,     1.061
"BUSMVMAI899", 12.505, 3,    7663.15,   88.6,    1.0614, 0, 0, 0, 0, 0, 0, 0, 0
"BUSMVMAI902", 12.505, 3,    7663.11,   88.6,    1.0614, 0, 0, 0, 0, 0, 0, 0, 0
"BUSMVMAI901", 12.505, 3,    7663.08,   88.6,    1.0614, 0, 0, 0, 0, 0, 0, 0, 0
"BUSMVMAI903", 12.505, 3,    7663.03,   88.6,    1.0614, 0, 0, 0, 0, 0, 0, 0, 0
"BUSMVMAI905", 12.505, 3,    7662.98,   88.6,    1.0614, 0, 0, 0, 0, 0, 0, 0, 0
"BUSMVMAI907", 12.505, 3,    7663.03,   88.6,    1.0614, 0, 0, 0, 0, 0, 0, 0, 0
"BUSMVMAI906", 12.505, 3,    7662.97,   88.6,    1.0614, 0, 0, 0, 0, 0, 0, 0, 0
"BUSMVMAI946", 12.505, 3,    7662.97,   88.6,    1.0614, 0, 0, 0, 0, 0, 0, 0, 0
"BUSMVMAI74", 12.505, 1,    7736.91,  -31.1,    1.0716, 2,    7732.98, -150.4,    1.0711, 3,    7660.07,   88.6,     1.061
"BUSMVMAI76", 12.505, 1,     7736.8,  -31.1,    1.0716, 2,    7733.06, -150.4,    1.0711, 3,    7660.02,   88.6,    1.0609
"BUSMVMAI77", 12.505, 1,    7736.53,  -31.1,    1.0715, 2,    7732.99, -150.4,    1.0711, 3,    7659.95,   88.6,    1.0609
"BUSMVMAI79", 12.505, 1,    7736.79,  -31.1,    1.0716, 2,    7733.07, -150.4,    1.0711, 3,    7660.01,   88.6,    1.0609
"BUSMVMAI81", 12.505, 1,    7736.51,  -31.1,    1.0715, 2,    7732.89, -150.4,     1.071, 3,    7659.99,   88.6,    1.0609
"BUSMVMAI91", 12.505, 1,    7735.55,  -31.1,    1.0714, 2,    7733.09, -150.4,    1.0711, 3,    7659.59,   88.6,    1.0609
"BUSMVMAI78", 12.505, 1,     7736.6,  -31.1,    1.0716, 2,     7733.2, -150.4,    1.0711, 3,    7659.91,   88.6,    1.0609
"BUSMVMAI80", 12.505, 1,    7736.41,  -31.1,    1.0715, 2,    7733.33, -150.4,    1.0711, 3,    7659.81,   88.6,    1.0609
"BUSMVMAI908", 12.505, 1,    7736.28,  -31.1,    1.0715, 0, 0, 0, 0, 0, 0, 0, 0
"BUSMVMAI89", 12.505, 1,    7736.36,  -31.1,    1.0715, 2,    7733.36, -150.4,    1.0711, 3,    7659.77,   88.6,    1.0609
"BUSMVMAI949", 12.505, 3,    7663.03,   88.6,    1.0614, 0, 0, 0, 0, 0, 0, 0, 0
"BUSMVMAI82", 12.505, 1,    7736.49,  -31.1,    1.0715, 2,    7732.81, -150.4,     1.071, 3,    7660.02,   88.6,    1.0609
"BUSMVMAI83", 12.505, 1,     7736.5,  -31.1,    1.0715, 2,     7732.8, -150.4,     1.071, 3,       7660,   88.6,    1.0609
"BUSMVMAI86", 12.505, 1,    7736.51,  -31.1,    1.0715, 2,     7732.8, -150.4,     1.071, 3,    7659.98,   88.6,    1.0609
"BUSMVMAI85", 12.505, 1,    7737.56,  -31.0,    1.0717, 2,    7732.82, -150.4,     1.071, 3,    7660.34,   88.6,     1.061
"BUSMVMAI84", 12.505, 1,     7737.5,  -31.0,    1.0717, 2,    7732.76, -150.4,     1.071, 3,    7660.39,   88.6,     1.061
"BUSMVMAI93", 12.505, 1,    7737.46,  -31.0,    1.0717, 2,    7732.73, -150.4,     1.071, 3,    7660.43,   88.6,     1.061
"BUSMVMAI2198", 12.505, 2,    7732.76, -150.4,     1.071, 0, 0, 0, 0, 0, 0, 0, 0
"BUSMVMAI709", 12.505, 1,    7737.57,  -31.0,    1.0717, 2,     7732.9, -150.4,     1.071, 3,     7660.3,   88.6,     1.061
"BUSMVMAI88", 12.505, 1,    7736.53,  -31.1,    1.0715, 2,    7732.79, -150.4,     1.071, 3,    7659.96,   88.6,    1.0609
"BUSMVMAI87", 12.505, 1,    7736.54,  -31.1,    1.0715, 2,    7732.79, -150.4,     1.071, 3,    7659.94,   88.6,    1.0609
"BUSMVMAI99", 12.505, 1,    7736.55,  -31.1,    1.0715, 2,    7732.79, -150.4,     1.071, 3,    7659.93,   88.6,    1.0609
"BUSMVMAI722", 12.505, 1,    7736.55,  -31.1,    1.0715, 2,    7732.79, -150.4,     1.071, 3,    7659.93,   88.6,    1.0609
"BUSMVMAI909", 12.505, 1,    7736.15,  -31.1,    1.0715, 0, 0, 0, 0, 0, 0, 0, 0
"BUSMVMAI90", 12.505, 1,    7736.37,  -31.1,    1.0715, 2,    7733.36, -150.4,    1.0711, 3,    7659.73,   88.6,    1.0609
"BUSMVMAI102", 12.505, 1,    7736.37,  -31.1,    1.0715, 2,    7733.36, -150.4,    1.0711, 3,    7659.69,   88.6,    1.0609
"BUSMVMAI92", 12.505, 1,     7734.7,  -31.1,    1.0713, 2,    7733.18, -150.4,    1.0711, 3,    7659.29,   88.6,    1.0608
"BUSMVMAI132", 12.505, 1,    7735.55,  -31.1,    1.0714, 2,    7733.09, -150.4,    1.0711, 3,    7659.59,   88.6,    1.0609
"BUSMVMAI98", 12.505, 1,    7734.71,  -31.1,    1.0713, 2,    7733.18, -150.4,    1.0711, 3,    7659.28,   88.6,    1.0608
"BUSMVMAI100", 12.505, 1,    7733.62,  -31.1,    1.0711, 2,    7733.37, -150.4,    1.0711, 3,    7658.86,   88.6,    1.0608
"BUSMVMAI723", 12.505, 1,    7734.71,  -31.1,    1.0713, 2,    7733.17, -150.4,    1.0711, 3,    7659.29,   88.6,    1.0608
"BUSMVMAI96", 12.505, 1,    7737.43,  -31.0,    1.0717, 2,    7732.69, -150.4,     1.071, 3,    7660.46,   88.6,     1.061
"BUSMVMAI916", 12.505, 1,    7737.46,  -31.0,    1.0717, 0, 0, 0, 0, 0, 0, 0, 0
"BUSMVMAI95", 12.505, 1,    7734.71,  -31.1,    1.0713, 2,    7733.12, -150.4,    1.0711, 3,    7659.29,   88.6,    1.0608
"BUSMVMAI94", 12.505, 1,    7734.69,  -31.1,    1.0713, 2,    7733.06, -150.4,    1.0711, 3,    7659.31,   88.6,    1.0608
"BUSMVMAI112", 12.505, 1,    7734.69,  -31.1,    1.0713, 2,    7733.06, -150.4,    1.0711, 3,     7659.3,   88.6,    1.0608
"BUSMVMAI126", 12.505, 1,    7734.71,  -31.1,    1.0713, 2,    7733.12, -150.4,    1.0711, 3,    7659.29,   88.6,    1.0608
"BUSMVMAI97", 12.505, 1,    7737.39,  -31.0,    1.0717, 2,    7732.64, -150.4,     1.071, 3,    7660.51,   88.6,     1.061
"BUSMVMAI711", 12.505, 1,    7737.43,  -31.0,    1.0717, 2,    7732.69, -150.4,     1.071, 3,    7660.46,   88.6,     1.061
"BUSMVMAI915", 12.505, 1,    7737.39,  -31.0,    1.0717, 0, 0, 0, 0, 0, 0, 0, 0
...
"BUSLVMAI1", 0.20785, 1,    127.427,   88.6,    1.0619, 2,    127.443,  -91.4,     1.062, 0, 0, 0, 0
"BUSLVMAI2", 0.20785, 1,    127.569,   88.7,    1.0631, 2,    127.582,  -91.3,    1.0632, 0, 0, 0, 0
"BUSLVMAI3", 0.20785, 1,    127.398,   88.6,    1.0616, 2,    127.414,  -91.4,    1.0618, 0, 0, 0, 0
"BUSLVMAI4", 0.20785, 1,    128.384,  -31.2,    1.0699, 2,    128.505,  148.8,    1.0709, 0, 0, 0, 0
"BUSLVMAI5", 0.20785, 1,     127.96, -150.4,    1.0663, 2,    128.018,   29.6,    1.0668, 0, 0, 0, 0
"BUSLVMAI6", 0.20785, 1,    127.224,   88.4,    1.0602, 2,    127.239,  -91.6,    1.0603, 0, 0, 0, 0
"BUSLVMAI7", 0.20785, 1,    127.432,   88.6,    1.0619, 2,    127.446,  -91.4,    1.0621, 0, 0, 0, 0
"BUSLVMAI8", 0.20785, 1,    127.009,   88.4,    1.0584, 2,    127.028,  -91.6,    1.0586, 0, 0, 0, 0
"BUSLVMAI9", 0.20785, 1,    126.798,   88.2,    1.0567, 2,    126.811,  -91.8,    1.0568, 0, 0, 0, 0
"BUSLVMAI10", 0.20785, 1,    126.843,   88.2,     1.057, 2,    126.856,  -91.8,    1.0571, 0, 0, 0, 0
"BUSLVMAI11", 0.20785, 1,    128.391, -150.4,    1.0699, 2,    128.404,   29.6,      1.07, 0, 0, 0, 0
"BUSLVMAI12", 0.20785, 1,    128.359, -150.4,    1.0697, 2,    128.374,   29.6,    1.0698, 0, 0, 0, 0
"BUSLVMAI13", 0.20785, 1,     128.81,  -30.9,    1.0734, 2,    128.826,  149.0,    1.0735, 0, 0, 0, 0
"BUSLVMAI14", 0.20785, 1,    128.932,  -31.0,    1.0744, 2,    128.948,  149.0,    1.0746, 0, 0, 0, 0
"BUSLVMAI15", 0.20785, 1,    128.924,  -30.9,    1.0744, 2,    128.937,  149.1,    1.0745, 0, 0, 0, 0
"BUSLVMAI16", 0.20785, 1,    127.402,   88.6,    1.0617, 2,     127.42,  -91.4,    1.0618, 0, 0, 0, 0
"BUSLVMAI17", 0.20785, 1,     126.07,   88.0,    1.0506, 2,      126.1,  -92.0,    1.0508, 0, 0, 0, 0
"BUSLVMAI18", 0.20785, 1,    127.297,   88.5,    1.0608, 2,    127.313,  -91.5,    1.0609, 0, 0, 0, 0
"BUSLVMAI19", 0.20785, 1,     127.47,   88.6,    1.0623, 2,    127.484,  -91.4,    1.0624, 0, 0, 0, 0
"BUSLVMAI20", 0.20785, 1,    127.917, -150.5,     1.066, 2,    127.953,   29.5,    1.0663, 0, 0, 0, 0
"BUSLVMAI21", 0.20785, 1,    127.428,   88.6,    1.0619, 2,    127.443,  -91.4,     1.062, 0, 0, 0, 0
"BUSLVMAI22", 0.20785, 1,    128.742,  -31.0,    1.0729, 2,    128.837,  149.0,    1.0736, 0, 0, 0, 0
"BUSLVMAI23", 0.20785, 1,    127.382,   88.6,    1.0615, 2,    127.397,  -91.4,    1.0616, 0, 0, 0, 0
"BUSLVMAI24", 0.20785, 1,    127.395,   88.6,    1.0616, 2,    127.411,  -91.4,    1.0618, 0, 0, 0, 0
"BUSLVMAI25", 0.20785, 1,    127.343,   88.5,    1.0612, 2,    127.359,  -91.5,    1.0613, 0, 0, 0, 0
"BUSLVMAI26", 0.20785, 1,    128.324, -150.4,    1.0694, 2,    128.339,   29.6,    1.0695, 0, 0, 0, 0
"BUSLVMAI27", 0.20785, 1,     128.42, -150.4,    1.0702, 2,    128.436,   29.6,    1.0703, 0, 0, 0, 0
"BUSLVMAI28", 0.20785, 1,    127.297,   88.5,    1.0608, 2,    127.313,  -91.5,    1.0609, 0, 0, 0, 0
"BUSLVMAI29", 0.20785, 1,     126.62,   88.1,    1.0552, 2,    126.636,  -91.9,    1.0553, 0, 0, 0, 0
"BUSLVMAI30", 0.20785, 1,     128.27, -150.3,    1.0689, 2,    128.284,   29.7,     1.069, 0, 0, 0, 0
"BUSLVMAI31", 0.20785, 1,      127.4,   88.6,    1.0617, 2,    127.416,  -91.4,    1.0618, 0, 0, 0, 0
"BUSLVMAI32", 0.20785, 1,     128.49,  -31.0,    1.0708, 2,    128.503,  148.9,    1.0709, 0, 0, 0, 0
"BUSLVMAI33", 0.20785, 1,    127.258,   88.5,    1.0605, 2,    127.271,  -91.6,    1.0606, 0, 0, 0, 0
"BUSLVMAI34", 0.20785, 1,    125.532,   88.2,    1.0461, 2,    125.673,  -91.8,    1.0473, 0, 0, 0, 0
"BUSLVMAI35", 0.20785, 1,    127.332,   88.6,    1.0611, 2,    127.346,  -91.4,    1.0612, 0, 0, 0, 0
"BUSLVMAI36", 0.20785, 1,     127.33,   88.6,    1.0611, 2,    127.344,  -91.4,    1.0612, 0, 0, 0, 0
"BUSLVMAI37", 0.20785, 1,    127.315,   88.6,     1.061, 2,    127.331,  -91.5,    1.0611, 0, 0, 0, 0
"BUSLVMAI38", 0.20785, 1,    125.728, -151.0,    1.0477, 2,    125.746,   29.0,    1.0479, 0, 0, 0, 0
"BUSLVMAI39", 0.20785, 1,    128.417, -150.4,    1.0701, 2,     128.43,   29.6,    1.0702, 0, 0, 0, 0
"BUSLVMAI40", 0.20785, 1,    126.945,   88.4,    1.0579, 2,    127.001,  -91.6,    1.0583, 0, 0, 0, 0
"BUSLVMAI41", 0.20785, 1,    128.545,  -31.0,    1.0712, 2,    128.561,  148.9,    1.0713, 0, 0, 0, 0
"BUSLVMAI42", 0.20785, 1,    128.601,  -31.0,    1.0717, 2,    128.617,  149.0,    1.0718, 0, 0, 0, 0
"BUSLVMAI43", 0.20785, 1,    128.548,  -31.1,    1.0712, 2,    128.564,  148.9,    1.0714, 0, 0, 0, 0
"BUSLVMAI44", 0.20785, 1,    127.158,   88.5,    1.0597, 2,      127.2,  -91.5,      1.06, 0, 0, 0, 0
"BUSLVMAI45", 0.20785, 1,    127.112,   88.5,    1.0593, 2,    127.126,  -91.5,    1.0594, 0, 0, 0, 0
"BUSLVMAI46", 0.20785, 1,    127.281,   88.6,    1.0607, 2,    127.297,  -91.4,    1.0608, 0, 0, 0, 0
"BUSLVMAI47", 0.20785, 1,    127.335,   88.6,    1.0611, 2,    127.349,  -91.4,    1.0612, 0, 0, 0, 0
"BUSLVMAI48", 0.20785, 1,    126.912,   88.4,    1.0576, 2,    126.933,  -91.6,    1.0578, 0, 0, 0, 0
"BUSLVMAI49", 0.20785, 1,    128.561,  -31.0,    1.0713, 2,    128.576,  149.0,    1.0715, 0, 0, 0, 0
"BUSLVMAI50", 0.20785, 1,    126.657, -150.9,    1.0555, 2,    126.756,   29.1,    1.0563, 0, 0, 0, 0
"BUSLVMAI51", 0.20785, 1,    127.709,  -31.3,    1.0642, 2,    127.725,  148.7,    1.0644, 0, 0, 0, 0
"BUSLVMAI52", 0.20785, 1,    127.344,   88.6,    1.0612, 2,    127.357,  -91.4,    1.0613, 0, 0, 0, 0
"BUSLVMAI53", 0.20785, 1,    127.326,   88.6,    1.0611, 2,    127.342,  -91.4,    1.0612, 0, 0, 0, 0
"BUSLVMAI54", 0.20785, 1,    126.619,   88.3,    1.0552, 2,    126.635,  -91.7,    1.0553, 0, 0, 0, 0
"BUSLVMAI55", 0.20785, 1,    128.577,  -31.0,    1.0715, 2,    128.592,  148.9,    1.0716, 0, 0, 0, 0
"BUSLVMAI56", 0.20785, 1,    127.322,   88.6,     1.061, 2,    127.335,  -91.4,    1.0611, 0, 0, 0, 0
"BUSLVMAI57", 0.20785, 1,    127.262,   88.6,    1.0605, 2,    127.277,  -91.4,    1.0606, 0, 0, 0, 0
"BUSLVMAI58", 0.20785, 1,    127.342,   88.6,    1.0612, 2,    127.356,  -91.4,    1.0613, 0, 0, 0, 0
"BUSLVMAI59", 0.20785, 1,    128.561,  -31.0,    1.0713, 2,    128.576,  149.0,    1.0715, 0, 0, 0, 0
"BUSLVMAI60", 0.20785, 1,    128.463,  -31.1,    1.0705, 2,    128.476,  148.9,    1.0706, 0, 0, 0, 0
"BUSLVMAI61", 0.20785, 1,    127.063,  -31.7,    1.0589, 2,     127.08,  148.3,     1.059, 0, 0, 0, 0
"BUSLVMAI62", 0.20785, 1,    128.326, -150.5,    1.0694, 2,     128.34,   29.5,    1.0695, 0, 0, 0, 0
"BUSLVMAI63", 0.20785, 1,    128.195,  -31.1,    1.0683, 2,    128.218,  148.9,    1.0685, 0, 0, 0, 0
"BUSLVMAI64", 0.20785, 1,    128.315, -150.5,    1.0693, 2,    128.328,   29.5,    1.0694, 0, 0, 0, 0
"BUSLVMAI65", 0.20785, 1,    128.544,  -31.1,    1.0712, 2,    128.558,  148.9,    1.0713, 0, 0, 0, 0
"BUSLVMAI66", 0.20785, 1,    127.331,   88.6,    1.0611, 2,    127.345,  -91.4,    1.0612, 0, 0, 0, 0
"BUSLVMAI67", 0.20785, 1,    128.234,  -31.2,    1.0686, 2,     128.25,  148.8,    1.0688, 0, 0, 0, 0
"BUSLVMAI68", 0.20785, 1,     128.12,  -31.3,    1.0677, 2,    128.133,  148.7,    1.0678, 0, 0, 0, 0
"BUSLVMAI69", 0.20785, 1,    127.335,   88.6,    1.0611, 2,    127.348,  -91.4,    1.0612, 0, 0, 0, 0
"BUSLVMAI70", 0.20785, 1,    126.958,   88.4,     1.058, 2,    126.994,  -91.6,    1.0583, 0, 0, 0, 0
"BUSLVMAI71", 0.20785, 1,    128.368,  -31.1,    1.0697, 2,    128.382,  148.9,    1.0698, 0, 0, 0, 0
"BUSLVMAI72", 0.20785, 1,    128.456,  -31.1,    1.0705, 2,    128.469,  148.9,    1.0706, 0, 0, 0, 0
"BUSLVMAI73", 0.20785, 1,    128.522,  -31.0,     1.071, 2,    128.535,  148.9,    1.0711, 0, 0, 0, 0
"BUSLVMAI74", 0.20785, 1,    128.559,  -31.0,    1.0713, 2,    128.575,  149.0,    1.0715, 0, 0, 0, 0
"BUSLVMAI75", 0.20785, 1,    128.196, -150.5,    1.0683, 2,     128.21,   29.5,    1.0684, 0, 0, 0, 0
"BUSLVMAI76", 0.20785, 1,    127.331,   88.6,    1.0611, 2,    127.344,  -91.4,    1.0612, 0, 0, 0, 0
"BUSLVMAI77", 0.20785, 1,    127.926,  -31.3,    1.0661, 2,     127.94,  148.7,    1.0662, 0, 0, 0, 0
"BUSLVMAI78", 0.20785, 1,    128.577,  -31.0,    1.0715, 2,     128.59,  149.0,    1.0716, 0, 0, 0, 0
"BUSLVMAI79", 0.20785, 1,    127.268,   88.6,    1.0606, 2,    127.282,  -91.4,    1.0607, 0, 0, 0, 0
"BUSLVMAI80", 0.20785, 1,    126.217,   88.1,    1.0518, 2,    126.247,  -91.9,    1.0521, 0, 0, 0, 0
"BUSLVMAI81", 0.20785, 1,     127.33,   88.6,    1.0611, 2,    127.344,  -91.4,    1.0612, 0, 0, 0, 0
"BUSLVMAI82", 0.20785, 1,    127.435,   88.6,     1.062, 2,    127.451,  -91.4,    1.0621, 0, 0, 0, 0
"BUSLVMAI83", 0.20785, 1,    128.242,  -31.2,    1.0687, 2,    128.261,  148.8,    1.0688, 0, 0, 0, 0
"BUSLVMAI84", 0.20785, 1,    127.442,   88.7,     1.062, 2,    127.456,  -91.3,    1.0621, 0, 0, 0, 0
"BUSLVMAI85", 0.20785, 1,    128.507, -150.4,    1.0709, 2,    128.531,   29.6,    1.0711, 0, 0, 0, 0
"BUSLVMAI86", 0.20785, 1,    128.286,  -31.1,     1.069, 2,    128.331,  148.9,    1.0694, 0, 0, 0, 0
"BUSLVMAI87", 0.20785, 1,     128.73,  -30.9,    1.0728, 2,    128.758,  149.1,     1.073, 0, 0, 0, 0
"BUSLVMAI88", 0.20785, 1,     127.37,   88.6,    1.0614, 2,    127.383,  -91.4,    1.0615, 0, 0, 0, 0
"BUSLVMAI89", 0.20785, 1,    127.331,   88.6,    1.0611, 2,    127.344,  -91.4,    1.0612, 0, 0, 0, 0
"BUSLVMAI90", 0.20785, 1,    126.762,   88.4,    1.0563, 2,    126.778,  -91.6,    1.0565, 0, 0, 0, 0
"BUSLVMAI91", 0.20785, 1,    127.314,   88.5,    1.0609, 2,    127.329,  -91.5,    1.0611, 0, 0, 0, 0
"BUSLVMAI92", 0.20785, 1,    128.138,  -31.2,    1.0678, 2,    128.159,  148.8,     1.068, 0, 0, 0, 0
"BUSLVMAI93", 0.20785, 1,     127.19,   88.6,    1.0599, 2,    127.206,  -91.4,      1.06, 0, 0, 0, 0
"BUSLVMAI94", 0.20785, 1,    127.281,   88.6,    1.0607, 2,    127.295,  -91.4,    1.0608, 0, 0, 0, 0
"BUSLVMAI95", 0.20785, 1,    127.261,   88.6,    1.0605, 2,    127.277,  -91.4,    1.0606, 0, 0, 0, 0
"BUSLVMAI96", 0.20785, 1,    127.333,   88.6,    1.0611, 2,    127.348,  -91.5,    1.0612, 0, 0, 0, 0
"BUSLVMAI97", 0.20785, 1,    128.483, -150.4,    1.0707, 2,    128.498,   29.6,    1.0708, 0, 0, 0, 0
"BUSLVMAI98", 0.20785, 1,    128.483, -150.4,    1.0707, 2,    128.498,   29.6,    1.0708, 0, 0, 0, 0
"BUSLVMAI99", 0.20785, 1,    127.353,   88.6,    1.0613, 2,    127.367,  -91.4,    1.0614, 0, 0, 0, 0
"BUSLVMAI100", 0.20785, 1,    127.401,   88.6,    1.0617, 2,    127.415,  -91.4,    1.0618, 0, 0, 0, 0
"BUSLVMAI101", 0.20785, 1,    127.259,   88.6,    1.0605, 2,    127.275,  -91.4,    1.0606, 0, 0, 0, 0
"BUSLVMAI102", 0.20785, 1,    127.328,   88.6,    1.0611, 2,    127.344,  -91.4,    1.0612, 0, 0, 0, 0
"BUSLVMAI103", 0.20785, 1,    127.217,   88.6,    1.0601, 2,    127.233,  -91.4,    1.0603, 0, 0, 0, 0
"BUSLVMAI104", 0.20785, 1,    127.187,   88.6,    1.0599, 2,    127.201,  -91.5,      1.06, 0, 0, 0, 0
"BUSLVMAI105", 0.20785, 1,    127.038,   88.5,    1.0587, 2,    127.052,  -91.5,    1.0588, 0, 0, 0, 0
"BUSLVMAI106", 0.20785, 1,    128.523,  -31.1,     1.071, 2,    128.536,  148.9,    1.0711, 0, 0, 0, 0
"BUSLVMAI107", 0.20785, 1,    127.335,   88.6,    1.0611, 2,    127.349,  -91.4,    1.0612, 0, 0, 0, 0
"BUSLVMAI108", 0.20785, 1,    127.273,   88.6,    1.0606, 2,    127.287,  -91.4,    1.0607, 0, 0, 0, 0
"BUSLVMAI109", 0.20785, 1,    128.319,  -31.1,    1.0693, 2,    128.363,  148.9,    1.0697, 0, 0, 0, 0
"BUSLVMAI110", 0.20785, 1,    128.231,  -31.2,    1.0686, 2,    128.252,  148.8,    1.0688, 0, 0, 0, 0
"BUSLVMAI111", 0.20785, 1,    128.316,  -31.1,    1.0693, 2,    128.333,  148.9,    1.0694, 0, 0, 0, 0
"BUSLVMAI112", 0.20785, 1,    128.437,  -31.1,    1.0703, 2,    128.453,  148.9,    1.0704, 0, 0, 0, 0
"BUSLVMAI113", 0.20785, 1,    128.483, -150.4,    1.0707, 2,    128.499,   29.6,    1.0708, 0, 0, 0, 0
"BUSLVMAI114", 0.20785, 1,    126.902,  -31.5,    1.0575, 2,    126.917,  148.5,    1.0576, 0, 0, 0, 0
"BUSLVMAI115", 0.20785, 1,    128.317,  -31.1,    1.0693, 2,    128.331,  148.9,    1.0694, 0, 0, 0, 0
"BUSLVMAI116", 0.20785, 1,    127.233,   88.6,    1.0603, 2,    127.247,  -91.4,    1.0604, 0, 0, 0, 0
"BUSLVMAI117", 0.20785, 1,    128.087,  -31.2,    1.0674, 2,    128.114,  148.8,    1.0676, 0, 0, 0, 0
"BUSLVMAI118", 0.20785, 1,     128.62,  -31.0,    1.0718, 2,    128.636,  149.0,     1.072, 0, 0, 0, 0
"BUSLVMAI119", 0.20785, 1,    127.017,   88.5,    1.0585, 2,     127.03,  -91.5,    1.0586, 0, 0, 0, 0
"BUSLVMAI120", 0.20785, 1,    128.316,  -31.1,    1.0693, 2,     128.33,  148.9,    1.0694, 0, 0, 0, 0
"BUSLVMAI121", 0.20785, 1,    128.516, -150.4,     1.071, 2,    128.532,   29.6,    1.0711, 0, 0, 0, 0
"BUSLVMAI122", 0.20785, 1,    127.222,   88.6,    1.0602, 2,    127.238,  -91.4,    1.0603, 0, 0, 0, 0
"BUSLVMAI123", 0.20785, 1,    128.505, -150.4,    1.0709, 2,    128.519,   29.6,     1.071, 0, 0, 0, 0
"BUSLVMAI124", 0.20785, 1,    126.888,   88.5,    1.0574, 2,    126.931,  -91.5,    1.0578, 0, 0, 0, 0
"BUSLVMAI125", 0.20785, 1,    126.467,   88.4,    1.0539, 2,    126.484,  -91.6,     1.054, 0, 0, 0, 0
"BUSLVMAI126", 0.20785, 1,    128.514, -150.4,     1.071, 2,    128.529,   29.6,    1.0711, 0, 0, 0, 0
"BUSLVMAI127", 0.20785, 1,    127.225,   88.6,    1.0602, 2,     127.24,  -91.4,    1.0603, 0, 0, 0, 0
"BUSLVMAI128", 0.20785, 1,    128.535, -150.3,    1.0711, 2,    128.556,   29.7,    1.0713, 0, 0, 0, 0
"BUSLVMAI129", 0.20785, 1,    128.316,  -31.1,    1.0693, 2,    128.329,  148.9,    1.0694, 0, 0, 0, 0
"BUSLVMAI130", 0.20785, 1,    128.462,  -31.1,    1.0705, 2,    128.478,  148.9,    1.0707, 0, 0, 0, 0
"BUSLVMAI131", 0.20785, 1,    127.382,  -31.4,    1.0615, 2,    127.413,  148.6,    1.0618, 0, 0, 0, 0
"BUSLVMAI132", 0.20785, 1,    128.313,  -31.1,    1.0693, 2,    128.326,  148.9,    1.0694, 0, 0, 0, 0
"BUSLVMAI133", 0.20785, 1,    127.239,   88.6,    1.0603, 2,    127.257,  -91.4,    1.0605, 0, 0, 0, 0
"BUSLVMAI134", 0.20785, 1,    127.045,   88.5,    1.0587, 2,     127.06,  -91.5,    1.0588, 0, 0, 0, 0
"BUSLVMAI135", 0.20785, 1,    127.168,   88.5,    1.0597, 2,    127.184,  -91.5,    1.0599, 0, 0, 0, 0
"BUSLVMAI136", 0.20785, 1,    128.078,  -31.2,    1.0673, 2,    128.114,  148.8,    1.0676, 0, 0, 0, 0
"BUSLVMAI137", 0.20785, 1,    128.563, -150.3,    1.0714, 2,    128.577,   29.7,    1.0715, 0, 0, 0, 0
"BUSLVMAI138", 0.20785, 1,    128.241, -150.5,    1.0687, 2,    128.271,   29.5,    1.0689, 0, 0, 0, 0
"BUSLVMAI139", 0.20785, 1,    127.774, -150.7,    1.0648, 2,    127.791,   29.3,    1.0649, 0, 0, 0, 0
"BUSLVMAI140", 0.20785, 1,    128.204,  -31.2,    1.0684, 2,    128.221,  148.8,    1.0685, 0, 0, 0, 0
"BUSLVMAI141", 0.20785, 1,    128.515, -150.4,     1.071, 2,    128.529,   29.6,    1.0711, 0, 0, 0, 0
"BUSLVMAI142", 0.20785, 1,    128.226, -150.5,    1.0686, 2,     128.24,   29.5,    1.0687, 0, 0, 0, 0
"BUSLVMAI143", 0.20785, 1,    128.414, -150.4,    1.0701, 2,     128.43,   29.6,    1.0702, 0, 0, 0, 0
"BUSLVMAI144", 0.20785, 1,    127.225,   88.6,    1.0602, 2,     127.24,  -91.4,    1.0603, 0, 0, 0, 0
"BUSLVMAI145", 0.20785, 1,    128.369,  -31.1,    1.0697, 2,    128.385,  148.9,    1.0699, 0, 0, 0, 0
"BUSLVMAI146", 0.20785, 1,    128.496, -150.4,    1.0708, 2,     128.51,   29.6,    1.0709, 0, 0, 0, 0
"BUSLVMAI147", 0.20785, 1,    127.999,  -31.1,    1.0667, 2,    128.014,  148.9,    1.0668, 0, 0, 0, 0
"BUSLVMAI148", 0.20785, 1,     127.13,   88.6,    1.0594, 2,    127.146,  -91.4,    1.0595, 0, 0, 0, 0
"BUSLVMAI149", 0.20785, 1,    128.398, -150.4,      1.07, 2,    128.411,   29.6,    1.0701, 0, 0, 0, 0
"BUSLVMAI150", 0.20785, 1,    127.531,  -31.5,    1.0628, 2,    127.554,  148.5,    1.0629, 0, 0, 0, 0
"BUSLVMAI151", 0.20785, 1,    127.912, -150.5,    1.0659, 2,    127.925,   29.5,     1.066, 0, 0, 0, 0
"BUSLVMAI152", 0.20785, 1,    128.305,  -31.1,    1.0692, 2,    128.321,  148.9,    1.0693, 0, 0, 0, 0
"BUSLVMAI153", 0.20785, 1,    126.631,   88.4,    1.0553, 2,    126.647,  -91.6,    1.0554, 0, 0, 0, 0
"BUSLVMAI154", 0.20785, 1,    127.232,   88.6,    1.0603, 2,    127.248,  -91.4,    1.0604, 0, 0, 0, 0
"BUSLVMAI155", 0.20785, 1,    128.122,  -31.2,    1.0677, 2,    128.136,  148.8,    1.0678, 0, 0, 0, 0
"BUSLVMAI156", 0.20785, 1,    128.325,  -31.1,    1.0694, 2,    128.338,  148.9,    1.0695, 0, 0, 0, 0
"BUSLVMAI157", 0.20785, 1,     127.49,  -31.4,    1.0624, 2,    127.507,  148.6,    1.0626, 0, 0, 0, 0
"BUSLVMAI158", 0.20785, 1,    128.449, -150.4,    1.0704, 2,    128.462,   29.6,    1.0705, 0, 0, 0, 0
"BUSLVMAI159", 0.20785, 1,    128.492, -150.4,    1.0708, 2,    128.505,   29.6,    1.0709, 0, 0, 0, 0
"BUSLVMAI160", 0.20785, 1,    128.142,  -31.1,    1.0678, 2,     128.16,  148.9,     1.068, 0, 0, 0, 0
"BUSLVMAI161", 0.20785, 1,    128.142,  -31.2,    1.0679, 2,    128.181,  148.8,    1.0682, 0, 0, 0, 0
"BUSLVMAI162", 0.20785, 1,    128.092,  -31.2,    1.0674, 2,    128.109,  148.8,    1.0676, 0, 0, 0, 0
"BUSLVMAI163", 0.20785, 1,    128.305,  -31.1,    1.0692, 2,    128.321,  148.9,    1.0693, 0, 0, 0, 0
"BUSLVMAI164", 0.20785, 1,    128.498,  -31.1,    1.0708, 2,    128.511,  148.9,    1.0709, 0, 0, 0, 0
"BUSLVMAI165", 0.20785, 1,     127.62,  -31.3,    1.0635, 2,    127.689,  148.7,    1.0641, 0, 0, 0, 0
"BUSLVMAI166", 0.20785, 1,    128.051,  -31.3,    1.0671, 2,    128.097,  148.7,    1.0675, 0, 0, 0, 0
"BUSLVMAI167", 0.20785, 1,    127.099,   88.6,    1.0592, 2,    127.127,  -91.4,    1.0594, 0, 0, 0, 0
"BUSLVMAI168", 0.20785, 1,    127.139,   88.6,    1.0595, 2,    127.154,  -91.4,    1.0596, 0, 0, 0, 0
"BUSLVMAI169", 0.20785, 1,    126.371,  -31.5,    1.0531, 2,    126.389,  148.5,    1.0532, 0, 0, 0, 0
"BUSLVMAI170", 0.20785, 1,    128.314,  -31.1,    1.0693, 2,    128.328,  148.9,    1.0694, 0, 0, 0, 0
"BUSLVMAI171", 0.20785, 1,     127.83,  -31.3,    1.0653, 2,    127.891,  148.7,    1.0658, 0, 0, 0, 0
"BUSLVMAI172", 0.20785, 1,    127.176,   88.6,    1.0598, 2,     127.19,  -91.4,    1.0599, 0, 0, 0, 0
"BUSLVMAI173", 0.20785, 1,    127.221,   88.6,    1.0602, 2,    127.237,  -91.4,    1.0603, 0, 0, 0, 0
"BUSLVMAI174", 0.20785, 1,    128.108,  -31.2,    1.0676, 2,    128.142,  148.8,    1.0679, 0, 0, 0, 0
"BUSLVMAI175", 0.20785, 1,    127.848,  -31.3,    1.0654, 2,    127.862,  148.7,    1.0655, 0, 0, 0, 0
"BUSLVMAI176", 0.20785, 1,    127.103,   88.5,    1.0592, 2,    127.117,  -91.5,    1.0593, 0, 0, 0, 0
"BUSLVMAI177", 0.20785, 1,    127.269,   88.6,    1.0606, 2,    127.282,  -91.4,    1.0607, 0, 0, 0, 0
"BUSLVMAI178", 0.20785, 1,     128.47, -150.4,    1.0706, 2,    128.484,   29.6,    1.0707, 0, 0, 0, 0
"BUSLVMAI179", 0.20785, 1,    128.329, -150.5,    1.0694, 2,    128.342,   29.5,    1.0695, 0, 0, 0, 0
"BUSLVMAI180", 0.20785, 1,    128.324,  -31.1,    1.0694, 2,    128.338,  148.9,    1.0695, 0, 0, 0, 0
"BUSLVMAI181", 0.20785, 1,    128.313,  -31.1,    1.0693, 2,    128.327,  148.9,    1.0694, 0, 0, 0, 0
"BUSLVMAI182", 0.20785, 1,    128.124,  -31.1,    1.0677, 2,    128.223,  148.9,    1.0685, 0, 0, 0, 0
"BUSLVMAI183", 0.20785, 1,    127.166,   88.6,    1.0597, 2,     127.18,  -91.4,    1.0598, 0, 0, 0, 0
"BUSLVMAI184", 0.20785, 1,    128.471,  -31.1,    1.0706, 2,    128.485,  148.9,    1.0707, 0, 0, 0, 0
"BUSLVMAI185", 0.20785, 1,     128.24, -150.4,    1.0687, 2,    128.253,   29.5,    1.0688, 0, 0, 0, 0
"BUSLVMAI186", 0.20785, 1,    127.236,   88.6,    1.0603, 2,    127.251,  -91.4,    1.0604, 0, 0, 0, 0
"BUSLVMAI187", 0.20785, 1,    127.278,   88.7,    1.0607, 2,    127.291,  -91.4,    1.0608, 0, 0, 0, 0
"BUSLVMAI188", 0.20785, 1,    128.489, -150.4,    1.0707, 2,    128.505,   29.6,    1.0709, 0, 0, 0, 0
"BUSLVMAI189", 0.20785, 1,     128.32,  -31.1,    1.0693, 2,    128.336,  148.9,    1.0695, 0, 0, 0, 0
"BUSLVMAI190", 0.20785, 1,    128.489, -150.4,    1.0707, 2,    128.505,   29.6,    1.0709, 0, 0, 0, 0
"BUSLVMAI191", 0.20785, 1,    127.232,   88.6,    1.0603, 2,    127.248,  -91.4,    1.0604, 0, 0, 0, 0
"BUSLVMAI192", 0.20785, 1,    128.303,  -31.1,    1.0692, 2,    128.319,  148.9,    1.0693, 0, 0, 0, 0
"BUSLVMAI193", 0.20785, 1,    128.315,  -31.1,    1.0693, 2,    128.331,  148.9,    1.0694, 0, 0, 0, 0
"BUSLVMAI194", 0.20785, 1,     127.16,   88.6,    1.0597, 2,    127.175,  -91.4,    1.0598, 0, 0, 0, 0
"BUSLVMAI195", 0.20785, 1,    127.235,   88.6,    1.0603, 2,     127.25,  -91.4,    1.0604, 0, 0, 0, 0
"BUSLVMAI196", 0.20785, 1,    128.481, -150.4,    1.0707, 2,    128.497,   29.6,    1.0708, 0, 0, 0, 0
"BUSLVMAI197", 0.20785, 1,    128.361, -150.5,    1.0697, 2,    128.376,   29.5,    1.0698, 0, 0, 0, 0
"BUSLVMAI198", 0.20785, 1,    128.483, -150.4,    1.0707, 2,    128.499,   29.6,    1.0708, 0, 0, 0, 0
"BUSLVMAI199", 0.20785, 1,    128.483, -150.4,    1.0707, 2,    128.499,   29.6,    1.0708, 0, 0, 0, 0
"BUSLVMAI200", 0.20785, 1,    128.304,  -31.1,    1.0692, 2,    128.319,  148.9,    1.0693, 0, 0, 0, 0
...
